TITLE MW A-5 phreeqc script first breakthrough storage test 

SOLUTION_MASTER_SPECIES
Fto Fto 0.0 62.00 62.00
Gto Gto 0.0 62.00 62.00
Hto Hto 0.0 62.00 62.00
Ito Ito 0.0 62.00 62.00
Jto Jto 0.0 62.00 62.00

SOLUTION_SPECIES
Fto = Fto
Gto = Gto
Hto = Hto
Ito = Ito
Jto = Jto

SOLUTION 0 
-units mmol/kgw 
Cl 3.928513938204461
#N(+5) 0.16718896222267804

Fto 0.16718896222267804
Gto 0.16718896222267804
Hto 0.16718896222267804
Ito 0.16718896222267804
Jto 0.16718896222267804
END 

Solution 1-300
-units mmol/kgw 
Cl 51.03339632753222
#N(+5) 0.0016450312797859524

Fto 0.0016450312797859524
Gto 0.0016450312797859524
Hto 0.0016450312797859524
Ito 0.0016450312797859524
Jto 0.0016450312797859524
END 

SELECTED_OUTPUT 
-file ../../Data/PHREEQC/MW5.txt 
-reset false 
-state true 
-distance true 
-time true 
-simulation true 
-step true 
-high_precision true 

USER_PUNCH 
-headings Day IC_Cl_(mg/l) NO3_0.0 NO3_0.1 NO3_0.25 NO3_0.5 NO3_1.0
-start 
1 PUNCH total_time 
2 PUNCH tot("Cl")*1000*35.453
3 PUNCH tot("Fto")*1000*62
4 PUNCH tot("Gto")*1000*62
5 PUNCH tot("Hto")*1000*62
6 PUNCH tot("Ito")*1000*62
7 PUNCH tot("Jto")*1000*62

RATES 

Fto_m
-start 
1 rate= parm(1)*tot("Fto") 
2 moles = rate* time 
3 SAVE moles 
-end 

Gto_m
-start 
1 rate= parm(1)*tot("Gto") 
2 moles = rate* time 
3 SAVE moles 
-end 

Hto_m
-start 
1 rate= parm(1)*tot("Hto") 
2 moles = rate* time 
3 SAVE moles 
-end 

Ito_m
-start 
1 rate= parm(1)*tot("Ito") 
2 moles = rate* time 
3 SAVE moles 
-end 

Jto_m
-start 
1 rate= parm(1)*tot("Jto") 
2 moles = rate* time 
3 SAVE moles 
-end 
 
KINETICS 1-300

Fto_m
-formula Fto -1
-parms 0.0 #first_order rate constant of 0.0 d-1

Gto_m 
-formula Gto -1
-parms 0.0041667 #first_order rate constant of 0.1 d-1

Hto_m
-formula Hto -1
-parms 0.0104 #first_order rate constant of 0.25 d-1

Ito_m 
-formula Ito -1
-parms 0.0208 #first_order rate constant of 0.5 d-1

Jto_m 
-formula Jto -1
-parms 0.041667 #first_order rate constant of 1.0 d-1
END 

TRANSPORT 
-cells 300
-lengths 
0.25
0.10355339059327379
0.07945931129894551
0.0669872981077807
0.05901699437494745
0.05335544132084702
0.04906539207035321
0.045668953420399894
0.04289321881345243
0.04056941504209488
0.03858678254675507
0.036869206195588644
0.035362415081558685
0.03402652782748805
0.03283148985836892
0.031754163448145745
0.030776406404415146
0.029883765375406046
0.0290645641053473
0.02830925286472641
0.027609934989065055
0.026960016216897476
0.026353940872322346
0.025786990563409162
0.02525512860841106
0.024754878398196123
0.024283227278461883
0.023837549855637352
0.023415546251330577
0.023015191979289362
0.022634696944590083
0.022272471665589766
0.02192709926141201
0.02159731207681803
0.021281972063578847
0.020980054225095968
0.020690632574554835
0.02041286816768917
0.020145998857355574
0.019889330484590184
0.01964222927402237
0.019404115243752962
0.019174456473534995
0.018952764102199815
0.01873858794714245
0.01853151265647468
0.018331154318943943
0.018137157468616216
0.017949192431122807
0.017766952966368876
0.01759015416934373
0.017418530596281956
0.01725183458813495
0.01708983476725412
0.016932314686532113
0.01677907161305492
0.01662991543071679
0.016484667648289708
0.01634316050117479
0.016205236136556556
0.016070745872954983
0.015939549526289287
0.015811514795490256
0.015686516701556963
0.015564437074637283
0.015445164084352925
0.015328591809122383
0.015214619840717702
0.015103152920688423
0.014994100605670191
0.014887376958900855
0.014782900265552623
0.014680592769740208
0.014580380431274076
0.014482192700440155
0.014385962309240163
0.01429162507769366
0.014199119733931287
0.014108387746935236
0.014019373170892635
0.013932022500210195
0.013846284534354325
0.013762110251720472
0.013679452691845118
0.013598266845301854
0.013518509550704216
0.013440139398277928
0.013363116639510952
0.013287403102435924
0.013212962112133741
0.013139758416079506
0.01306775811399552
0.012996928591879175
0.012927238459925938
0.012858657494076109
0.012791156580937102
0.0127247076658481
0.012659283703890356
0.01259485861363352
0.012531407233450143
0.012468905280222486
0.012407329310296866
0.012346656682535428
0.012286865523337465
0.012227934693507247
0.012169843756850707
0.012112572950400136
0.012056103156165676
0.012000415874321657
0.011945493197741186
0.011891317787805722
0.01183787285140614
0.011785142119071779
0.011733109824165311
0.011681760683074138
0.011631079876349926
0.011581053030740307
0.011531666202061697
0.01148290585887457
0.01143475886690215
0.011387212474169406
0.011340254296815289
0.011293872305539132
0.011248054812656338
0.011202790459726497
0.011158068205718852
0.011113877315704901
0.011070207350029282
0.011027048153946506
0.010984389847707998
0.010942222817054592
0.010900537704114921
0.010859325398684838
0.010818577029857224
0.010778283958006174
0.010738437767087827
0.010699030257256048
0.010660053437776096
0.010621499520216293
0.010583360911909256
0.010545630209671142
0.010508300193766917
0.010471363822103452
0.010434814224650424
0.010398644698073944
0.010362848700569138
0.010327419846892116
0.01029235190357447
0.010257638784315848
0.010223274545547056
0.010189253382154373
0.01015556962336106
0.01012221772875721
0.010089192284469028
0.0100564879994689
0.01002409970201601
0.009992022336217765
0.009960250958716887
0.009928780735489084
0.009897606938756631
0.009866724944000538
0.00983613022708374
0.009805818361462215
0.00977578501549825
0.009746025949858073
0.009716537014999194
0.009687314148739912
0.009658353373908746
0.00962965079606981
0.009601202601324577
0.009573005054180683
0.00954505449549492
0.009517347340476157
0.009489880076753554
0.009462649262508283
0.009435651524661637
0.009408883557117775
0.009382342119065967
0.009356024033329469
0.009329926184771686
0.009304045518742754
0.009278379039582951
0.009252923809160318
0.009227676945463337
0.009202635621226918
0.0091777970626028
0.009153158547872131
0.009128717406186038
0.00910447101635814
0.009080416805675284
0.00905655224875801
0.009032874866440999
0.009009382224696605
0.00898607193357881
0.008962941646205369
0.00893998905776483
0.008917211904549749
0.008894607963022327
0.008872175048899145
0.008849911016266532
0.008827813756718594
0.00880588119851744
0.00878411130577783
0.008762502077673595
0.008741051547663137
0.008719757782742477
0.008698618882708953
0.008677632979449346
0.008656798236251095
0.008636112847119293
0.008615575036127865
0.00859518305677165
0.008574935191346889
0.008554829750342385
0.008534865071846642
0.008515039520972323
0.00849535148929137
0.008475799394291439
0.008456381678835445
0.008437096810645972
0.008417943281795015
0.008398919608208377
0.008380024329184721
0.008361256006921725
0.00834261322605867
0.008324094593227027
0.008305698736613909
0.008287424305533975
0.008269269970014204
0.008251234420386222
0.00823331636689062
0.008215514539288371
0.008197827686482473
0.008180254576152013
0.008162793994384021
0.008145444745331076
0.008128205650859144
0.008111075550214952
0.0080940532996987
0.008077137772340315
0.008060327857589034
0.008043622461005207
0.008027020503962756
0.00801052092335297
0.00799412267130517
0.007977824714898496
0.007961626035897229
0.007945525630477679
0.007929522508969278
0.00791361569559923
0.007897804228240712
0.007882087158171291
0.00786646354983045
0.007850932480590433
0.007835493040520891
0.007820144332172152
0.007804885470349632
0.00778971558190289
0.007774633805517794
0.00775963929150425
0.007744731201603017
0.0077299087087840945
0.007715170997052212
0.007700517261266526
0.007685946706946112
0.007671458550095878
0.007657052017025379
0.007642726344177397
0.007628480777956526
0.007614314574563963
0.007600226999836757
0.00758621732907816
0.007572284846915522
0.007558428847135978
0.00754464863253812
0.007530943514787225
0.007517312814272259
0.007503755859956662
0.007490271989250452
0.007476860547861008
0.007463520889674946
0.007450252376613342
0.007437054378514496
0.007423926272998926
0.007410867445353908
0.007397877288407351
0.007384955202413224
0.007372100594930764
0.00735931288071523
0.007346591481600662
0.007333935826394189
0.007321345350770336
0.007308819497157337
0.007296357714639434
0.0072839594588547385
0.007271624191896642
0.0072593513822081235
0.007247140504495597
0.007234991039628547
0.007222902474548043
-shifts 11.0
-dispersivities 0.166
-diffusion_coefficient 0
-time_step 0.2240448826
-flow_direction forward 
-print_cells 100 
-punch_cells 100 
END 

TRANSPORT 
-shifts 1 
-time_step 32.666666666666664
-diffusion_coefficient 1e-08
-flow_direction diffusion_only 
END 

TRANSPORT 
-shifts 47.0
-time_step 0.2240448826
-diffusion_coefficient 0
-flow_direction forward 
END 

TRANSPORT 
-shifts 1 
-time_step 13.666666666666666
-diffusion_coefficient 1e-08
-flow_direction diffusion_only 
END 

TRANSPORT 
-shifts 37.0
-time_step 0.2240448826
-diffusion_coefficient 0
-flow_direction forward 
END 

TRANSPORT 
-shifts 1 
-time_step 14.616666666666667
-diffusion_coefficient 1e-08
-flow_direction diffusion_only 
END 

TRANSPORT 
-shifts 47.0
-time_step 0.2240448826
-diffusion_coefficient 0
-flow_direction forward 
END 

TRANSPORT 
-shifts 1 
-time_step 13.666666666666666
-diffusion_coefficient 1e-08
-flow_direction diffusion_only 
END 

TRANSPORT 
-shifts 42.0
-time_step 0.2240448826
-diffusion_coefficient 0
-flow_direction forward 
END 

TRANSPORT 
-shifts 1 
-time_step 16.416666666666668
-diffusion_coefficient 1e-08
-flow_direction diffusion_only 
END 

TRANSPORT 
-shifts 31.0
-time_step 0.2240448826
-diffusion_coefficient 0
-flow_direction forward 
END 

TRANSPORT 
-shifts 15 
-time_step 24
-diffusion_coefficient 1e-08
-flow_direction diffusion_only 
END 
